-------------------------------------------------------
          Amber 16 PMEMD                              2016
          -------------------------------------------------------

  [-O]verwriting output

File Assignments:

 Here is the input file:

Equilibration with solute restrictions
&cntrl
imin = 0,                           ! No Minimization
nmropt = 0,                         ! No NMR restraints read

! Nature and format of the input
ntx = 5,                            ! Coordinates but no velocities will be rea
irest = 1,                          ! Do not run a new simulation

! Nature and format of the output
ntxo = 1,                           ! rstrt file in ASCII format
ntpr = 500,                         ! inf in output every ntpr steps
ntwr = 500,                         ! rstrt file every ntwr steps
ntwx = 500,                         ! mdcrd file every ntwx steps
ntwv = 0,                           ! mdvel without velocities
ntwe = 0,                           ! Do not write energies and temperatures
idecomp = 0,                        ! No energy decomposition
iwrap = 1,                          ! Coordinates of the restart and mdcrd file

! Frozen or restrained atoms
ibelly = 0,                         ! No frozen atoms
ntr=1,                              ! Harmonic potential restraints
restraint_wt = 3.5,                ! The weight for the positional restraints
restraintmask = ':1-131@N,CA,C,O|:132',  ! restrained residues

! Molecular dynamics
nstlim = 50000,                     ! Number of MD-steps
dt = 0.002,                         ! Time step

! Temperature regulation
ntt = 3,                            ! Langevin thermostat
gamma_ln = 5,                       ! Gamma constant for Langevin
temp0 = 300.0,                      ! Reference T at which the system is to be
tempi = 300.0,                      ! Initial T
ig = -1,                            ! Seed for the RNG

! P and V regulation
ntp = 1,                            ! constant P
barostat = 1,                       ! Berendsen barostat
taup = 1,                           ! Pressure relaxation time
ntb = 2,                            ! Periodic box for constant P

! SHAKE variables
ntc = 2,                            ! Bonds involving H are constrained
ntf = 2,                            ! Bond interaction involving H are ommited.

cut = 10.0,                         ! Nonbonded cutoff
/
&end

Note: ig = -1. Setting random seed to   104828 based on wallclock time in
      microseconds.

--------------------------------------------------------------------------------
   1.  RESOURCE   USE:
--------------------------------------------------------------------------------

 getting new box info from bottom of inpcrd
 NATOM  =   15768 NTYPES =      16 NBONH =   14693 MBONA  =    1090
 NTHETH =    2483 MTHETA =    1455 NPHIH =    4974 MPHIA  =    4548
 NHPARM =       0 NPARM  =       0 NNB   =   30050 NRES   =    4667
 NBONA  =    1090 NTHETA =    1455 NPHIA =    4548 NUMBND =      71
 NUMANG =     152 NPTRA  =     186 NATYP =      40 NPHB   =       1
 IFBOX  =       2 NMXRS  =      50 IFCAP =       0 NEXTRA =       0
 NCOPY  =       0

     BOX TYPE: TRUNCATED OCTAHEDRON

--------------------------------------------------------------------------------
   2.  CONTROL  DATA  FOR  THE  RUN
--------------------------------------------------------------------------------

default_name

General flags:
     imin    =       0, nmropt  =       0

Nature and format of input:
     ntx     =       5, irest   =       1, ntrx    =       1

Nature and format of output:
     ntxo    =       1, ntpr    =     500, ntrx    =       1, ntwr    =     500
     iwrap   =       1, ntwx    =     500, ntwv    =       0, ntwe    =       0
     ioutfm  =       1, ntwprt  =       0, idecomp =       0, rbornstat=      0

Potential function:
     ntf     =       2, ntb     =       2, igb     =       0, nsnb    =      25
     ipol    =       0, gbsa    =       0, iesp    =       0
     dielc   =   1.00000, cut     =  10.00000, intdiel =   1.00000

Frozen or restrained atoms:
     ibelly  =       0, ntr     =       1
     restraint_wt =   3.50000

Molecular dynamics:
     nstlim  =     50000, nscm    =         0, nrespa  =         1
     t       =   0.00000, dt      =   0.00200, vlimit  =  -1.00000

Langevin dynamics temperature regulation:
     ig      =  104828
     temp0   = 300.00000, tempi   = 300.00000, gamma_ln=   5.00000

Pressure regulation:
     ntp     =       1
     pres0   =   1.00000, comp    =  44.60000, taup    =   1.00000

SHAKE:
     ntc     =       2, jfastw  =       0
     tol     =   0.00001

Ewald parameters:
     verbose =       0, ew_type =       0, nbflag  =       1, use_pme =       1
     vdwmeth =       1, eedmeth =       1, netfrc  =       1
     Box X =   58.875   Box Y =   58.875   Box Z =   58.875
     Alpha =  109.471   Beta  =  109.471   Gamma =  109.471
     NFFT1 =   64       NFFT2 =   64       NFFT3 =   64
     Cutoff=   10.000   Tol   =0.100E-04
     Ewald Coefficient =  0.27511
     Interpolation order =    4

    LOADING THE CONSTRAINED ATOMS AS GROUPS

   5.  REFERENCE ATOM COORDINATES

  default_name
     Mask :1-131@N,CA,C,O|:132; matches   574 atoms

--------------------------------------------------------------------------------
   3.  ATOMIC COORDINATES AND VELOCITIES
--------------------------------------------------------------------------------

default_name
 begin time read from input coords =  2000.000 ps

 Number of triangulated 3-point waters found:     4535

     Sum of charges from parm topology file =   0.00200096
     Forcing neutrality...

--------------------------------------------------------------------------------
   4.  RESULTS
 NSTEP =      500   TIME(PS) =    2001.000  TEMP(K) =   301.54  PRESS =    -1.5
 Etot   =    -37814.8307  EKtot   =      9770.6719  EPtot      =    -47585.5026
 BOND   =       427.4304  ANGLE   =      1041.5330  DIHED      =      1643.0061
 1-4 NB =       477.7836  1-4 EEL =      5675.6179  VDWAALS    =      5309.0619
 EELEC  =    -62248.0858  EHBOND  =         0.0000  RESTRAINT  =        88.1504
 EAMBER (non-restraint)  =    -47673.6530
 EKCMT  =      4108.9687  VIRIAL  =      4114.1582  VOLUME     =    156733.4913
                                                    Density    =         1.0272
 ------------------------------------------------------------------------------

      A V E R A G E S   O V E R     100 S T E P S

 NSTEP =    50000   TIME(PS) =    2100.000  TEMP(K) =   299.73  PRESS =    -0.5
 Etot   =    -37796.9696  EKtot   =      9711.7605  EPtot      =    -47508.7301
 BOND   =       402.0966  ANGLE   =      1051.1507  DIHED      =      1637.8290
 1-4 NB =       476.5060  1-4 EEL =      5691.4717  VDWAALS    =      5200.1906
 EELEC  =    -62061.8634  EHBOND  =         0.0000  RESTRAINT  =        93.8887
 EAMBER (non-restraint)  =    -47602.6188
 EKCMT  =      4059.0296  VIRIAL  =      4060.7369  VOLUME     =    156561.4440
                                                    Density    =         1.0283
 ------------------------------------------------------------------------------

      R M S  F L U C T U A T I O N S

 NSTEP =    50000   TIME(PS) =    2100.000  TEMP(K) =     2.17  PRESS =   176.7
 Etot   =       114.5849  EKtot   =        70.3422  EPtot      =        98.1227
 BOND   =        16.3534  ANGLE   =        22.6386  DIHED      =        13.2079
 1-4 NB =         8.7333  1-4 EEL =        25.0072  VDWAALS    =        83.6987
 EELEC  =       135.6217  EHBOND  =         0.0000  RESTRAINT  =         5.7294
 EAMBER (non-restraint)  =        92.3933
 EKCMT  =        42.7224  VIRIAL  =       596.5400  VOLUME     =       286.6970
                                                    Density    =         0.0019
 ------------------------------------------------------------------------------
