-------------------------------------------------------
          Amber 16 PMEMD                              2016
          -------------------------------------------------------

  [-O]verwriting output

File Assignments:

 Here is the input file:

Equilibration with solute restrictions
&cntrl
imin = 0,                           ! No Minimization
nmropt = 0,                         ! No NMR restraints read

! Nature and format of the input
ntx = 5,                            ! Coordinates but no velocities will be rea
irest = 1,                          ! Do not run a new simulation

! Nature and format of the output
ntxo = 1,                           ! rstrt file in ASCII format
ntpr = 500,                         ! inf in output every ntpr steps
ntwr = 500,                         ! rstrt file every ntwr steps
ntwx = 500,                         ! mdcrd file every ntwx steps
ntwv = 0,                           ! mdvel without velocities
ntwe = 0,                           ! Do not write energies and temperatures
idecomp = 0,                        ! No energy decomposition
iwrap = 1,                          ! Coordinates of the restart and mdcrd file

! Frozen or restrained atoms
ibelly = 0,                         ! No frozen atoms
ntr=1,                              ! Harmonic potential restraints
restraint_wt = 30.0,                ! The weight for the positional restraints
restraintmask = ':1-131@N,CA,C,O|:132',  ! restrained residues

! Molecular dynamics
nstlim = 50000,                     ! Number of MD-steps
dt = 0.002,                         ! Time step

! Temperature regulation
ntt = 3,                            ! Langevin thermostat
gamma_ln = 5,                       ! Gamma constant for Langevin
temp0 = 300.0,                      ! Reference T at which the system is to be
tempi = 300.0,                      ! Initial T
ig = -1,                            ! Seed for the RNG

! P and V regulation
ntp = 1,                            ! constant P
barostat = 1,                       ! Berendsen barostat
taup = 1,                           ! Pressure relaxation time
ntb = 2,                            ! Periodic box for constant P

! SHAKE variables
ntc = 2,                            ! Bonds involving H are constrained
ntf = 2,                            ! Bond interaction involving H are ommited.

cut = 10.0,                         ! Nonbonded cutoff
/
&end

Note: ig = -1. Setting random seed to   428994 based on wallclock time in
      microseconds.

--------------------------------------------------------------------------------
   1.  RESOURCE   USE:
--------------------------------------------------------------------------------

 getting new box info from bottom of inpcrd
 NATOM  =   16143 NTYPES =      16 NBONH =   15068 MBONA  =    1090
 NTHETH =    2483 MTHETA =    1455 NPHIH =    4974 MPHIA  =    4545
 NHPARM =       0 NPARM  =       0 NNB   =   30550 NRES   =    4792
 NBONA  =    1090 NTHETA =    1455 NPHIA =    4545 NUMBND =      69
 NUMANG =     150 NPTRA  =     181 NATYP =      39 NPHB   =       1
 IFBOX  =       2 NMXRS  =      50 IFCAP =       0 NEXTRA =       0
 NCOPY  =       0

     BOX TYPE: TRUNCATED OCTAHEDRON

--------------------------------------------------------------------------------
   2.  CONTROL  DATA  FOR  THE  RUN
--------------------------------------------------------------------------------

default_name

General flags:
     imin    =       0, nmropt  =       0

Nature and format of input:
     ntx     =       5, irest   =       1, ntrx    =       1

Nature and format of output:
     ntxo    =       1, ntpr    =     500, ntrx    =       1, ntwr    =     500
     iwrap   =       1, ntwx    =     500, ntwv    =       0, ntwe    =       0
     ioutfm  =       1, ntwprt  =       0, idecomp =       0, rbornstat=      0

Potential function:
     ntf     =       2, ntb     =       2, igb     =       0, nsnb    =      25
     ipol    =       0, gbsa    =       0, iesp    =       0
     dielc   =   1.00000, cut     =  10.00000, intdiel =   1.00000

Frozen or restrained atoms:
     ibelly  =       0, ntr     =       1
     restraint_wt =  30.00000

Molecular dynamics:
     nstlim  =     50000, nscm    =         0, nrespa  =         1
     t       =   0.00000, dt      =   0.00200, vlimit  =  -1.00000

Langevin dynamics temperature regulation:
     ig      =  428994
     temp0   = 300.00000, tempi   = 300.00000, gamma_ln=   5.00000

Pressure regulation:
     ntp     =       1
     pres0   =   1.00000, comp    =  44.60000, taup    =   1.00000

SHAKE:
     ntc     =       2, jfastw  =       0
     tol     =   0.00001

Ewald parameters:
     verbose =       0, ew_type =       0, nbflag  =       1, use_pme =       1
     vdwmeth =       1, eedmeth =       1, netfrc  =       1
     Box X =   59.300   Box Y =   59.300   Box Z =   59.300
     Alpha =  109.471   Beta  =  109.471   Gamma =  109.471
     NFFT1 =   64       NFFT2 =   64       NFFT3 =   64
     Cutoff=   10.000   Tol   =0.100E-04
     Ewald Coefficient =  0.27511
     Interpolation order =    4

    LOADING THE CONSTRAINED ATOMS AS GROUPS

   5.  REFERENCE ATOM COORDINATES

  default_name
     Mask :1-131@N,CA,C,O|:132; matches   574 atoms

--------------------------------------------------------------------------------
   3.  ATOMIC COORDINATES AND VELOCITIES
--------------------------------------------------------------------------------

default_name
 begin time read from input coords =   440.000 ps

 Number of triangulated 3-point waters found:     4660

     Sum of charges from parm topology file =  -0.00200004
     Forcing neutrality...

--------------------------------------------------------------------------------
   4.  RESULTS
 NSTEP =      500   TIME(PS) =     441.000  TEMP(K) =   300.42  PRESS =    73.2
 Etot   =    -38524.3469  EKtot   =      9957.9854  EPtot      =    -48482.3322
 BOND   =       380.7658  ANGLE   =      1085.2124  DIHED      =      1716.9960
 1-4 NB =       467.7745  1-4 EEL =      5692.8751  VDWAALS    =      5505.7041
 EELEC  =    -63533.1206  EHBOND  =         0.0000  RESTRAINT  =       201.4604
 EAMBER (non-restraint)  =    -48683.7926
 EKCMT  =      4208.4906  VIRIAL  =      3955.0888  VOLUME     =    160260.0005
                                                    Density    =         1.0279
 ------------------------------------------------------------------------------

      A V E R A G E S   O V E R     100 S T E P S

 NSTEP =    50000   TIME(PS) =     540.000  TEMP(K) =   300.08  PRESS =    -7.8
 Etot   =    -38423.5243  EKtot   =      9946.9566  EPtot      =    -48370.4810
 BOND   =       397.6701  ANGLE   =      1068.3172  DIHED      =      1713.3631
 1-4 NB =       470.2597  1-4 EEL =      5716.4183  VDWAALS    =      5402.9518
 EELEC  =    -63344.5033  EHBOND  =         0.0000  RESTRAINT  =       205.0422
 EAMBER (non-restraint)  =    -48575.5232
 EKCMT  =      4177.8088  VIRIAL  =      4204.9701  VOLUME     =    160589.9470
                                                    Density    =         1.0258
 ------------------------------------------------------------------------------

      R M S  F L U C T U A T I O N S

 NSTEP =    50000   TIME(PS) =     540.000  TEMP(K) =     1.88  PRESS =   178.4
 Etot   =       109.5299  EKtot   =        62.2066  EPtot      =        94.6014
 BOND   =        15.5192  ANGLE   =        24.5680  DIHED      =        14.2877
 1-4 NB =         7.8064  1-4 EEL =        21.0806  VDWAALS    =        91.0707
 EELEC  =       142.8189  EHBOND  =         0.0000  RESTRAINT  =         9.5041
 EAMBER (non-restraint)  =        85.0973
 EKCMT  =        45.9672  VIRIAL  =       615.3968  VOLUME     =       338.9407
                                                    Density    =         0.0022
 ------------------------------------------------------------------------------
